Circuit: * C:\Users\trocache\Documents\Thierry\2021_2022\5ESPE_2021\MaContrib\MyPowerSimu\Boost.asc

Direct Newton iteration for .op point succeeded.

Date: Sun Nov 07 18:41:29 2021
Total elapsed time: 0.079 seconds.

tnom = 27
temp = 27
method = modified trap
totiter = 2361
traniter = 2349
tranpoints = 1161
accept = 1134
rejected = 27
matrix size = 16
fillins = 1
solver = Normal
Matrix Compiler1: 654 bytes object code size  0.2/0.1/[0.1]
Matrix Compiler2: 1.08 KB object code size  0.1/0.2/[0.1]

