Circuit: * C:\Users\trocache\Documents\Thierry\2021_2022\5ESPE_2021\MaContrib\MyPowerSimu\Boost.asc

Direct Newton iteration for .op point succeeded.

Date: Fri Nov 12 19:44:36 2021
Total elapsed time: 0.085 seconds.

tnom = 27
temp = 27
method = modified trap
totiter = 2825
traniter = 2815
tranpoints = 1388
accept = 1323
rejected = 65
matrix size = 16
fillins = 2
solver = Normal
Matrix Compiler1: 672 bytes object code size  0.2/0.1/[0.1]
Matrix Compiler2: 1.10 KB object code size  0.1/0.2/[0.1]

