Circuit: * C:\Users\trocache\Documents\Thierry\2021_2022\5ESPE_2021\MaContrib\MyPowerSimu\Boost.asc

WARNING: Node NC_01 is floating.

WARNING: Less than two connections to node NC_01.  This node is used by C1.
Direct Newton iteration for .op point succeeded.

Date: Sun Nov 07 17:04:45 2021
Total elapsed time: 10.270 seconds.

tnom = 27
temp = 27
method = modified trap
totiter = 656679
traniter = 656674
tranpoints = 328012
accept = 327681
rejected = 331
matrix size = 15
fillins = 0
solver = Normal
Matrix Compiler1: 380 bytes object code size  0.1/0.1/[0.1]
Matrix Compiler2: 815 bytes object code size  0.1/0.2/[0.1]

