Circuit: * C:\Users\trocache\Documents\Thierry\2021_2022\5ESPE_2021\MaContrib\MyPowerSimu\Boost.asc

Direct Newton iteration for .op point succeeded.

Date: Sun Nov 07 17:31:44 2021
Total elapsed time: 0.038 seconds.

tnom = 27
temp = 27
method = modified trap
totiter = 2753
traniter = 2749
tranpoints = 1254
accept = 1205
rejected = 49
matrix size = 9
fillins = 2
solver = Normal
Matrix Compiler1: 332 bytes object code size  0.1/0.1/[0.1]
Matrix Compiler2: off  [0.1]/0.2/0.1

