Circuit: * C:\Users\trocache\Documents\Thierry\2021_2022\5ESPE_2021\MaContrib\MyPowerSimu\CelluleCommut.asc

WARNING: Node REF_H is floating.
WARNING: Node REF_L is floating.

Direct Newton iteration for .op point succeeded.

Date: Wed Nov 10 16:07:15 2021
Total elapsed time: 4.115 seconds.

tnom = 27
temp = 27
method = modified trap
totiter = 1025403
traniter = 1025398
tranpoints = 510700
accept = 508696
rejected = 2004
matrix size = 16
fillins = 1
solver = Normal
Matrix Compiler1: 654 bytes object code size  0.2/0.1/[0.1]
Matrix Compiler2: 972 bytes object code size  0.1/0.2/[0.1]

