Circuit: * C:\Users\trocache\Documents\Thierry\2021_2022\5ESPE_2021\MaContrib\MyPowerSimu\CelluleCommut.asc

Direct Newton iteration for .op point succeeded.
Heightened Def Con from 0.00109788 to 0.00109789
Heightened Def Con from 0.00118788 to 0.00118789
Heightened Def Con from 0.0012525 to 0.00125251
Heightened Def Con from 0.0036525 to 0.00365251
Heightened Def Con from 0.00414788 to 0.00414789
Heightened Def Con from 0.00472788 to 0.00472789
Heightened Def Con from 0.00482788 to 0.00482789

Date: Wed Nov 10 23:02:19 2021
Total elapsed time: 26.055 seconds.

tnom = 27
temp = 27
method = modified trap
totiter = 3294240
traniter = 3294223
tranpoints = 1035112
accept = 710293
rejected = 324826
matrix size = 32
fillins = 11
solver = Normal
Matrix Compiler1: 1.70 KB object code size  2.0/0.6/[0.3]
Matrix Compiler2: 2.33 KB object code size  2.6/1.0/[0.4]

