Circuit: * C:\Users\trocache\Documents\Thierry\2021_2022\5ESPE_2021\MaContrib\MyPowerSimu\CelluleCommut.asc

WARNING: Node REF_H is floating.
WARNING: Node REF_L is floating.

Direct Newton iteration for .op point succeeded.

Date: Thu Nov 11 21:24:20 2021
Total elapsed time: 6.803 seconds.

tnom = 27
temp = 27
method = modified trap
totiter = 740521
traniter = 740510
tranpoints = 369404
accept = 368641
rejected = 763
matrix size = 21
fillins = 0
solver = Normal
Matrix Compiler1: 662 bytes object code size  0.3/0.2/[0.2]
Matrix Compiler2: 1.22 KB object code size  0.2/0.4/[0.2]

