Circuit: * C:\Users\trocache\Documents\Thierry\2021_2022\5ESPE_2021\MaContrib\MyPowerSimu\CelluleCommut.asc

WARNING: Node REF_H is floating.
WARNING: Node REF_L is floating.

Direct Newton iteration for .op point succeeded.

Date: Fri Nov 12 19:07:41 2021
Total elapsed time: 19.139 seconds.

tnom = 27
temp = 27
method = modified trap
totiter = 2022794
traniter = 2022783
tranpoints = 1009360
accept = 1007353
rejected = 2007
matrix size = 22
fillins = 0
solver = Normal
Matrix Compiler1: 712 bytes object code size  0.2/0.2/[0.1]
Matrix Compiler2: 1.29 KB object code size  0.2/0.2/[0.1]

