Circuit: * C:\Users\trocache\Documents\Thierry\2021_2022\5ESPE_2021\MaContrib\MyPowerSimu\CelluleCommut.asc

WARNING: Node REF_H is floating.
WARNING: Node REF_L is floating.

Direct Newton iteration for .op point succeeded.

Date: Thu Nov 11 20:39:59 2021
Total elapsed time: 15.893 seconds.

tnom = 27
temp = 27
method = modified trap
totiter = 1427285
traniter = 1427280
tranpoints = 712177
accept = 710760
rejected = 1417
matrix size = 18
fillins = 0
solver = Normal
Matrix Compiler1: 512 bytes object code size  0.2/0.1/[0.1]
Matrix Compiler2: 1.01 KB object code size  0.1/0.2/[0.1]

