Circuit: * C:\Users\trocache\Documents\Thierry\2021_2022\5ESPE_2021\MaContrib\MyPowerSimu\CelluleCommut.asc

WARNING: Node REF_H is floating.
WARNING: Node REF_L is floating.

Direct Newton iteration for .op point succeeded.

Date: Wed Nov 10 17:15:13 2021
Total elapsed time: 1.196 seconds.

tnom = 27
temp = 27
method = modified trap
totiter = 204679
traniter = 204674
tranpoints = 102138
accept = 101938
rejected = 200
matrix size = 13
fillins = 0
solver = Normal
Matrix Compiler1: 298 bytes object code size  0.2/0.2/[0.1]
Matrix Compiler2: 689 bytes object code size  0.2/0.3/[0.1]

