Circuit: * C:\Users\trocache\Documents\Thierry\2021_2022\5ESPE_2021\MaContrib\MyPowerSimu\CelluleCommut.asc

Direct Newton iteration for .op point succeeded.

Date: Wed Nov 10 21:58:16 2021
Total elapsed time: 8.249 seconds.

tnom = 27
temp = 27
method = modified trap
totiter = 916692
traniter = 916676
tranpoints = 291219
accept = 254305
rejected = 36914
matrix size = 30
fillins = 7
solver = Normal
Matrix Compiler1: 1.46 KB object code size  1.1/0.8/[0.2]
Matrix Compiler2: 2.15 KB object code size  0.8/1.0/[0.4]

