Circuit: * C:\Users\trocache\Documents\Thierry\2021_2022\5ESPE_2021\MaContrib\MyPowerSimu\CelluleCommut.asc

WARNING: Node REF_H is floating.

Direct Newton iteration for .op point succeeded.

Date: Tue Nov 09 22:18:53 2021
Total elapsed time: 6.964 seconds.

tnom = 27
temp = 27
method = modified trap
totiter = 1024505
traniter = 1024500
tranpoints = 510179
accept = 507835
rejected = 2344
matrix size = 16
fillins = 0
solver = Normal
Matrix Compiler1: 528 bytes object code size  0.3/0.2/[0.1]
Matrix Compiler2: 916 bytes object code size  0.2/0.3/[0.2]

