Circuit: * C:\Users\trocache\Documents\Thierry\2021_2022\5ESPE_2021\MaContrib\MyPowerSimu\CelluleCommut.asc

WARNING: Node REF_H is floating.

Direct Newton iteration for .op point succeeded.

Date: Tue Nov 09 19:18:57 2021
Total elapsed time: 1.361 seconds.

tnom = 27
temp = 27
method = modified trap
totiter = 204679
traniter = 204674
tranpoints = 102138
accept = 101938
rejected = 200
matrix size = 12
fillins = 0
solver = Normal
Matrix Compiler1: 302 bytes object code size  0.2/0.1/[0.1]
Matrix Compiler2: 604 bytes object code size  0.1/0.2/[0.1]

