Circuit: * C:\Users\trocache\Documents\Thierry\2021_2022\5ESPE_2021\MaContrib\MyPowerSimu\CelluleCommut.asc

WARNING: Node REF_H is floating.

WARNING: Less than two connections to node CMD_L.  This node is used by PWM.
Direct Newton iteration for .op point succeeded.

Date: Wed Nov 10 16:24:36 2021
Total elapsed time: 5.479 seconds.

tnom = 27
temp = 27
method = modified trap
totiter = 1084411
traniter = 1084398
tranpoints = 521700
accept = 516697
rejected = 5003
matrix size = 16
fillins = 0
solver = Normal
Matrix Compiler1: 528 bytes object code size  0.2/0.2/[0.1]
Matrix Compiler2: 916 bytes object code size  0.2/0.5/[0.2]

