Circuit: * C:\Users\trocache\Documents\Thierry\2021_2022\5ESPE_2021\MaContrib\MyPowerSimu\Diode_ideale.asc

.OP point found by inspection.

Date: Wed Nov 10 22:20:07 2021
Total elapsed time: 0.072 seconds.

tnom = 27
temp = 27
method = trap
totiter = 200
traniter = 0
tranpoints = 0
accept = 0
rejected = 0
matrix size = 2
fillins = 0
solver = Normal
Matrix Compiler1:       2 opcodes  0.1/[0.0]/0.0
Matrix Compiler2: 96 bytes object code size  0.1/0.1/[0.0]

